
     RDKit          3D

 61 63  0  0  0  0  0  0  0  0999 V2000
   28.7480   34.7390   17.5650 N   0  0  0  0  0  0  0  0  0  0  0  0
   28.6110   33.4410   17.1680 C   0  0  0  0  0  0  0  0  0  0  0  0
   28.8780   33.1340   15.9830 O   0  0  0  0  0  0  0  0  0  0  0  0
   28.1950   32.4720   18.0060 N   0  0  0  0  0  0  0  0  0  0  0  0
   27.8890   32.7220   19.2880 C   0  0  0  0  0  0  0  0  0  0  0  0
   27.5040   31.8030   20.0470 O   0  0  0  0  0  0  0  0  0  0  0  0
   28.0090   34.1110   19.7940 C   0  0  0  0  0  0  0  0  0  0  0  0
   27.7150   34.4330   21.0740 N   0  0  0  0  0  0  0  0  0  0  0  0
   27.8360   35.7060   21.5210 C   0  0  0  0  0  0  0  0  0  0  0  0
   27.5290   36.0030   22.8450 C   0  0  0  0  0  0  0  0  0  0  0  0
   27.6480   37.3060   23.3210 C   0  0  0  0  0  0  0  0  0  0  0  0
   27.3100   37.5940   24.7630 C   0  0  0  0  0  0  0  0  0  0  0  0
   28.1100   38.3930   22.4030 C   0  0  0  0  0  0  0  0  0  0  0  0
   28.2500   39.8180   22.8840 C   0  0  0  0  0  0  0  0  0  0  0  0
   28.4170   38.0920   21.0790 C   0  0  0  0  0  0  0  0  0  0  0  0
   28.2990   36.7870   20.6030 C   0  0  0  0  0  0  0  0  0  0  0  0
   28.6050   36.4710   19.2580 N   0  0  0  0  0  0  0  0  0  0  0  0
   28.4730   35.1320   18.8310 C   0  0  0  0  0  0  0  0  0  0  0  0
   29.0710   37.5100   18.3330 C   0  0  0  0  0  0  0  0  0  0  0  0
   27.8940   38.1820   17.6370 C   0  0  2  0  0  0  0  0  0  0  0  0
   27.3100   37.2520   16.7180 O   0  0  0  0  0  0  0  0  0  0  0  0
   28.3170   39.4580   16.9010 C   0  0  2  0  0  0  0  0  0  0  0  0
   29.6900   39.3750   16.4910 O   0  0  0  0  0  0  0  0  0  0  0  0
   28.0960   40.7080   17.7560 C   0  0  2  0  0  0  0  0  0  0  0  0
   26.7220   41.1050   17.6690 O   0  0  0  0  0  0  0  0  0  0  0  0
   28.9800   41.8720   17.3160 C   0  0  0  0  0  0  0  0  0  0  0  0
   28.7980   42.1290   15.9160 O   0  0  0  0  0  0  0  0  0  0  0  0
   29.0698   35.4398   16.8822 H   0  0  0  0  0  0  0  0  0  0  0  0
   27.5675   33.6387   16.8817 H   0  0  0  0  0  0  0  0  0  0  0  0
   29.0890   32.8914   15.0467 H   0  0  0  0  0  0  0  0  0  0  0  0
   28.1091   31.5088   17.6514 H   0  0  0  0  0  0  0  0  0  0  0  0
   26.8462   32.9212   19.0002 H   0  0  0  0  0  0  0  0  0  0  0  0
   27.1997   31.0766   20.6469 H   0  0  0  0  0  0  0  0  0  0  0  0
   26.9657   34.3063   19.5052 H   0  0  0  0  0  0  0  0  0  0  0  0
   27.3936   33.6979   21.7200 H   0  0  0  0  0  0  0  0  0  0  0  0
   26.7930   35.9058   21.2343 H   0  0  0  0  0  0  0  0  0  0  0  0
   27.1901   35.2034   23.5201 H   0  0  0  0  0  0  0  0  0  0  0  0
   28.5720   35.8030   23.1317 H   0  0  0  0  0  0  0  0  0  0  0  0
   26.6043   37.5052   23.0366 H   0  0  0  0  0  0  0  0  0  0  0  0
   27.0636   37.8040   25.8143 H   0  0  0  0  0  0  0  0  0  0  0  0
   27.2752   36.5034   24.9022 H   0  0  0  0  0  0  0  0  0  0  0  0
   28.3810   37.5891   25.0139 H   0  0  0  0  0  0  0  0  0  0  0  0
   27.0674   38.5927   22.1148 H   0  0  0  0  0  0  0  0  0  0  0  0
   28.3520   40.8557   23.2343 H   0  0  0  0  0  0  0  0  0  0  0  0
   27.2774   39.8180   23.3978 H   0  0  0  0  0  0  0  0  0  0  0  0
   28.7344   39.4583   23.8038 H   0  0  0  0  0  0  0  0  0  0  0  0
   28.7556   38.8907   20.4026 H   0  0  0  0  0  0  0  0  0  0  0  0
   29.4601   37.8930   21.3661 H   0  0  0  0  0  0  0  0  0  0  0  0
   29.3411   36.5870   20.8930 H   0  0  0  0  0  0  0  0  0  0  0  0
   29.5147   34.9356   19.1247 H   0  0  0  0  0  0  0  0  0  0  0  0
   30.1268   37.7687   18.1648 H   0  0  0  0  0  0  0  0  0  0  0  0
   29.1245   36.7661   17.5244 H   0  0  0  0  0  0  0  0  0  0  0  0
   27.1590   38.4779   18.4001 H   0  0  0  0  0  0  0  0  0  0  0  0
   26.9062   36.6090   16.0826 H   0  0  0  0  0  0  0  0  0  0  0  0
   27.6811   39.5454   16.0077 H   0  0  0  0  0  0  0  0  0  0  0  0
   30.6370   39.3178   16.2082 H   0  0  0  0  0  0  0  0  0  0  0  0
   28.3647   40.4536   18.7919 H   0  0  0  0  0  0  0  0  0  0  0  0
   25.7727   41.3793   17.6089 H   0  0  0  0  0  0  0  0  0  0  0  0
   29.6581   42.4325   17.9763 H   0  0  0  0  0  0  0  0  0  0  0  0
   29.7912   41.1672   17.0812 H   0  0  0  0  0  0  0  0  0  0  0  0
   28.6724   42.3063   14.9501 H   0  0  0  0  0  0  0  0  0  0  0  0
  2  1  1  0
  3  2  1  0
  4  2  1  0
  5  4  1  0
  6  5  1  0
  7  5  1  0
  8  7  1  0
  9  8  1  0
 10  9  1  0
 11 10  1  0
 12 11  1  0
 13 11  1  0
 14 13  1  0
 15 13  1  0
 16 15  1  0
 16  9  1  0
 17 16  1  0
 18 17  1  0
 18  7  1  0
 18  1  1  0
 19 17  1  0
 20 19  1  0
 21 20  1  0
 22 20  1  0
 23 22  1  0
 24 22  1  0
 25 24  1  0
 26 24  1  0
 27 26  1  0
  1 28  1  0
  2 29  1  0
  3 30  1  0
  4 31  1  0
  5 32  1  0
  6 33  1  0
  7 34  1  0
  8 35  1  0
  9 36  1  0
 10 37  1  0
 10 38  1  0
 11 39  1  0
 12 40  1  0
 12 41  1  0
 12 42  1  0
 13 43  1  0
 14 44  1  0
 14 45  1  0
 14 46  1  0
 15 47  1  0
 15 48  1  0
 16 49  1  0
 18 50  1  0
 19 51  1  0
 19 52  1  0
 20 53  1  1
 21 54  1  0
 22 55  1  6
 23 56  1  0
 24 57  1  1
 25 58  1  0
 26 59  1  0
 26 60  1  0
 27 61  1  0
M  END
