
     RDKit          3D

 66 68  0  0  0  0  0  0  0  0999 V2000
   27.2040   31.8060   19.9310 O   0  0  0  0  0  0  0  0  0  0  0  0
   27.6230   32.7020   19.1570 C   0  0  0  0  0  0  0  0  0  0  0  0
   27.9430   32.4110   17.8710 N   0  0  0  0  0  0  0  0  0  0  0  0
   28.3940   33.3760   17.0300 C   0  0  0  0  0  0  0  0  0  0  0  0
   28.6770   33.0730   15.8440 O   0  0  0  0  0  0  0  0  0  0  0  0
   27.7610   34.0070   19.6160 C   0  0  0  0  0  0  0  0  0  0  0  0
   28.2270   35.0020   18.7510 C   0  0  0  0  0  0  0  0  0  0  0  0
   28.5330   34.6600   17.4660 N   0  0  0  0  0  0  0  0  0  0  0  0
   27.4500   34.3060   20.8960 N   0  0  0  0  0  0  0  0  0  0  0  0
   27.5860   35.5720   21.3410 C   0  0  0  0  0  0  0  0  0  0  0  0
   27.2630   35.8710   22.6600 C   0  0  0  0  0  0  0  0  0  0  0  0
   27.3950   37.1660   23.1490 C   0  0  0  0  0  0  0  0  0  0  0  0
   27.0260   37.4200   24.5880 C   0  0  0  0  0  0  0  0  0  0  0  0
   27.8590   38.1830   22.3050 C   0  0  0  0  0  0  0  0  0  0  0  0
   28.0140   39.4780   22.7150 N   0  0  0  0  0  0  0  0  0  0  0  0
   28.5000   40.4750   21.7800 C   0  0  0  0  0  0  0  0  0  0  0  0
   27.7060   39.9140   24.0670 C   0  0  0  0  0  0  0  0  0  0  0  0
   28.1790   37.8670   20.9790 C   0  0  0  0  0  0  0  0  0  0  0  0
   28.0470   36.5700   20.4840 C   0  0  0  0  0  0  0  0  0  0  0  0
   28.3560   36.2770   19.2000 N   0  0  0  0  0  0  0  0  0  0  0  0
   28.8560   37.3370   18.3030 C   0  0  0  0  0  0  0  0  0  0  0  0
   27.7030   37.9860   17.5400 C   0  0  2  0  0  0  0  0  0  0  0  0
   27.0210   36.9640   16.8120 O   0  0  0  0  0  0  0  0  0  0  0  0
   28.1560   39.0650   16.5520 C   0  0  2  0  0  0  0  0  0  0  0  0
   29.1540   38.5420   15.6830 O   0  0  0  0  0  0  0  0  0  0  0  0
   28.7300   40.3230   17.1910 C   0  0  2  0  0  0  0  0  0  0  0  0
   28.2330   40.4750   18.5170 O   0  0  0  0  0  0  0  0  0  0  0  0
   28.3450   41.5560   16.3850 C   0  0  0  0  0  0  0  0  0  0  0  0
   29.2040   41.6630   15.2450 O   0  0  0  0  0  0  0  0  0  0  0  0
   26.8737   31.0997   20.5411 H   0  0  0  0  0  0  0  0  0  0  0  0
   28.6566   32.4835   19.4636 H   0  0  0  0  0  0  0  0  0  0  0  0
   27.8423   31.4449   17.5284 H   0  0  0  0  0  0  0  0  0  0  0  0
   29.4284   33.1565   17.3329 H   0  0  0  0  0  0  0  0  0  0  0  0
   28.9000   32.8342   14.9095 H   0  0  0  0  0  0  0  0  0  0  0  0
   28.7947   33.7897   19.9230 H   0  0  0  0  0  0  0  0  0  0  0  0
   29.2610   34.7826   19.0556 H   0  0  0  0  0  0  0  0  0  0  0  0
   28.8740   35.3826   16.8160 H   0  0  0  0  0  0  0  0  0  0  0  0
   27.1099   33.5693   21.5305 H   0  0  0  0  0  0  0  0  0  0  0  0
   26.5511   35.7896   21.0382 H   0  0  0  0  0  0  0  0  0  0  0  0
   26.8987   35.0736   23.3245 H   0  0  0  0  0  0  0  0  0  0  0  0
   28.2973   35.6511   22.9631 H   0  0  0  0  0  0  0  0  0  0  0  0
   26.3610   37.3862   22.8450 H   0  0  0  0  0  0  0  0  0  0  0  0
   26.7567   37.6054   25.6383 H   0  0  0  0  0  0  0  0  0  0  0  0
   27.0996   36.3402   24.7843 H   0  0  0  0  0  0  0  0  0  0  0  0
   28.0898   37.5432   24.8392 H   0  0  0  0  0  0  0  0  0  0  0  0
   26.8248   38.4029   22.0014 H   0  0  0  0  0  0  0  0  0  0  0  0
   28.8685   41.2310   21.0710 H   0  0  0  0  0  0  0  0  0  0  0  0
   27.9202   40.0112   20.9683 H   0  0  0  0  0  0  0  0  0  0  0  0
   27.6406   41.1195   22.0168 H   0  0  0  0  0  0  0  0  0  0  0  0
   27.4729   40.2439   25.0901 H   0  0  0  0  0  0  0  0  0  0  0  0
   28.5259   39.5860   24.7229 H   0  0  0  0  0  0  0  0  0  0  0  0
   28.3158   40.8154   23.9068 H   0  0  0  0  0  0  0  0  0  0  0  0
   28.5435   38.6615   20.3112 H   0  0  0  0  0  0  0  0  0  0  0  0
   29.2134   37.6464   21.2812 H   0  0  0  0  0  0  0  0  0  0  0  0
   29.0820   36.3500   20.7845 H   0  0  0  0  0  0  0  0  0  0  0  0
   29.9136   37.6206   18.1984 H   0  0  0  0  0  0  0  0  0  0  0  0
   28.9742   36.5986   17.4963 H   0  0  0  0  0  0  0  0  0  0  0  0
   27.0555   38.4786   18.2803 H   0  0  0  0  0  0  0  0  0  0  0  0
   26.5482   36.2555   16.3073 H   0  0  0  0  0  0  0  0  0  0  0  0
   27.2379   39.3539   16.0194 H   0  0  0  0  0  0  0  0  0  0  0  0
   29.8484   38.1781   15.0784 H   0  0  0  0  0  0  0  0  0  0  0  0
   29.8251   40.2215   17.2110 H   0  0  0  0  0  0  0  0  0  0  0  0
   27.8875   40.5807   19.4387 H   0  0  0  0  0  0  0  0  0  0  0  0
   27.5342   42.2547   16.6388 H   0  0  0  0  0  0  0  0  0  0  0  0
   29.0505   42.1609   16.9734 H   0  0  0  0  0  0  0  0  0  0  0  0
   29.7981   41.7370   14.4565 H   0  0  0  0  0  0  0  0  0  0  0  0
  2  1  1  0
  3  2  1  0
  4  3  1  0
  5  4  1  0
  6  2  1  0
  7  6  1  0
  8  7  1  0
  8  4  1  0
  9  6  1  0
 10  9  1  0
 11 10  1  0
 12 11  1  0
 13 12  1  0
 14 12  1  0
 15 14  1  0
 16 15  1  0
 17 15  1  0
 18 14  1  0
 19 18  1  0
 19 10  1  0
 20 19  1  0
 20  7  1  0
 21 20  1  0
 22 21  1  0
 23 22  1  0
 24 22  1  0
 25 24  1  0
 26 24  1  0
 27 26  1  0
 28 26  1  0
 29 28  1  0
  1 30  1  0
  2 31  1  0
  3 32  1  0
  4 33  1  0
  5 34  1  0
  6 35  1  0
  7 36  1  0
  8 37  1  0
  9 38  1  0
 10 39  1  0
 11 40  1  0
 11 41  1  0
 12 42  1  0
 13 43  1  0
 13 44  1  0
 13 45  1  0
 14 46  1  0
 16 47  1  0
 16 48  1  0
 16 49  1  0
 17 50  1  0
 17 51  1  0
 17 52  1  0
 18 53  1  0
 18 54  1  0
 19 55  1  0
 21 56  1  0
 21 57  1  0
 22 58  1  1
 23 59  1  0
 24 60  1  6
 25 61  1  0
 26 62  1  1
 27 63  1  0
 28 64  1  0
 28 65  1  0
 29 66  1  0
M  END
